__1af2_A_rec_1ctu_zeb_lig_docked.pdb
 OpenBabel10181902123D

 17 18  0  0  1  0  0  0  0  0999 V2000
   35.8720   50.5210    9.6530 C   0  0  1  0  0  0  0  0  0  0  0  0
   36.1450   51.8670    9.0300 C   0  0  2  0  0  0  0  0  0  0  0  0
   37.3130   51.7410    8.1600 O   0  0  0  0  0  0  0  0  0  0  0  0
   36.3890   52.6380   10.2700 C   0  0  2  0  0  0  0  0  0  0  0  0
   37.7520   52.7930   10.5500 O   0  0  0  0  0  0  0  0  0  0  0  0
   35.7110   51.8430   11.3750 C   0  0  2  0  0  0  0  0  0  0  0  0
   35.8970   50.4680   11.0690 O   0  0  0  0  0  0  0  0  0  0  0  0
   35.3280   49.0110    9.3520 N   0  0  0  0  0  0  0  0  0  0  0  0
   36.2040   48.2260    8.7460 C   0  0  0  0  0  0  0  0  0  0  0  0
   37.3890   48.5180    8.7880 O   0  0  0  0  0  0  0  0  0  0  0  0
   35.7840   47.1190    8.1140 N   0  0  0  0  0  0  0  0  0  0  0  0
   34.3970   46.7280    8.1400 C   0  0  0  0  0  0  0  0  0  0  0  0
   33.6700   46.5800    6.6280 O   0  0  0  0  0  0  0  0  0  0  0  0
   33.5040   47.6910    8.8340 C   0  0  0  0  0  0  0  0  0  0  0  0
   34.0130   48.7920    9.3920 C   0  0  0  0  0  0  0  0  0  0  0  0
   34.3300   52.2270   11.6770 C   0  0  0  0  0  0  0  0  0  0  0  0
   34.1660   51.8650   13.0420 O   0  0  0  0  0  0  0  0  0  0  0  0
  1  8  1  1  0  0  0
  1  2  1  0  0  0  0
  1  7  1  0  0  0  0
  2  3  1  6  0  0  0
  2  4  1  0  0  0  0
  4  5  1  1  0  0  0
  4  6  1  0  0  0  0
  6  7  1  0  0  0  0
  6 16  1  6  0  0  0
  8  9  1  0  0  0  0
  8 15  1  0  0  0  0
  9 11  1  0  0  0  0
  9 10  2  0  0  0  0
 11 12  1  0  0  0  0
 12 13  2  0  0  0  0
 12 14  1  0  0  0  0
 14 15  2  0  0  0  0
 16 17  1  0  0  0  0
M  END
>  <MODEL>
       1

>  <COMPND>
    UNNAMED

>  <AUTHOR>
    GENERATED BY OPEN BABEL 2.4.90

>  <MASTER>
        0    0    0    0    0    0    0    0   17    0   17    0

