__2v3r_A_rec_1dy4_snp_lig_docked.pdb
 OpenBabel10191906383D

 19 20  0  0  1  0  0  0  0  0999 V2000
   25.8600   55.7920   89.8950 O   0  0  0  0  0  0  0  0  0  0  0  0
   24.5860   55.3060   90.1500 C   0  0  0  0  0  0  0  0  0  0  0  0
   24.2150   54.6210   91.3440 C   0  0  0  0  0  0  0  0  0  0  0  0
   22.8920   54.1340   91.5670 C   0  0  0  0  0  0  0  0  0  0  0  0
   21.8950   54.3380   90.5640 C   0  0  0  0  0  0  0  0  0  0  0  0
   21.2330   55.2050   88.3950 C   0  0  0  0  0  0  0  0  0  0  0  0
   21.5380   55.8870   87.1750 C   0  0  0  0  0  0  0  0  0  0  0  0
   22.8630   56.3740   86.9540 C   0  0  0  0  0  0  0  0  0  0  0  0
   23.8620   56.1680   87.9600 C   0  0  0  0  0  0  0  0  0  0  0  0
   23.5650   55.4940   89.1720 C   0  0  0  0  0  0  0  0  0  0  0  0
   22.2280   55.0110   89.3740 C   0  0  0  0  0  0  0  0  0  0  0  0
   26.6510   56.3300   90.9450 C   0  0  0  0  0  0  0  0  0  0  0  0
   27.9580   56.8520   90.3480 C   0  0  1  0  0  0  0  0  0  0  0  0
   29.0060   55.9660   90.6890 O   0  0  0  0  0  0  0  0  0  0  0  0
   27.8960   56.9680   88.8160 C   0  0  0  0  0  0  0  0  0  0  0  0
   27.4450   58.3000   88.4540 N   0  0  0  0  0  0  0  0  0  0  0  0
   28.3080   58.9990   87.5230 C   0  0  0  0  0  0  0  0  0  0  0  0
   28.7670   60.3150   88.1810 C   0  0  0  0  0  0  0  0  0  0  0  0
   27.5830   59.3090   86.1990 C   0  0  0  0  0  0  0  0  0  0  0  0
  1  2  1  0  0  0  0
  1 12  1  0  0  0  0
  2 10  2  0  0  0  0
  2  3  1  0  0  0  0
  3  4  2  0  0  0  0
  4  5  1  0  0  0  0
  5 11  2  0  0  0  0
  6  7  2  0  0  0  0
  6 11  1  0  0  0  0
  7  8  1  0  0  0  0
  8  9  2  0  0  0  0
  9 10  1  0  0  0  0
 10 11  1  0  0  0  0
 12 13  1  0  0  0  0
 13 15  1  0  0  0  0
 13 14  1  6  0  0  0
 15 16  1  0  0  0  0
 16 17  1  0  0  0  0
 17 18  1  0  0  0  0
 17 19  1  0  0  0  0
M  END
>  <MODEL>
       2

>  <COMPND>
    UNNAMED

>  <AUTHOR>
    GENERATED BY OPEN BABEL 2.4.90

>  <MASTER>
        0    0    0    0    0    0    0    0   19    0   19    0

