POCKET
     RDKit          3D

385384  0  0  0  0  0  0  0  0999 V2000
   45.7110   48.6290   13.0680 N   0  0  0  0  0  0  0  0  0  0  0  0
   44.6700   49.6070   12.8250 C   0  0  2  0  0  0  0  0  0  0  0  0
   44.9860   50.9450   13.4670 C   0  0  0  0  0  0  0  0  0  0  0  0
   45.5440   51.0210   14.5650 O   0  0  0  0  0  0  0  0  0  0  0  0
   43.3320   49.1220   13.3730 C   0  0  0  0  0  0  0  0  0  0  0  0
   42.8760   53.8150   14.6170 N   0  0  0  0  0  0  0  0  0  0  0  0
   41.5070   54.2050   14.8180 C   0  0  2  0  0  0  0  0  0  0  0  0
   41.2680   55.2770   15.8790 C   0  0  0  0  0  0  0  0  0  0  0  0
   40.5440   55.0120   16.8520 O   0  0  0  0  0  0  0  0  0  0  0  0
   40.7230   52.8930   15.1150 C   0  0  2  0  0  0  0  0  0  0  0  0
   41.3240   52.3040   16.2570 O   0  0  0  0  0  0  0  0  0  0  0  0
   40.7460   51.9070   13.9670 C   0  0  0  0  0  0  0  0  0  0  0  0
   37.0450   55.7320   16.2360 N   0  0  0  0  0  0  0  0  0  0  0  0
   36.1890   54.6610   16.7170 C   0  0  2  0  0  0  0  0  0  0  0  0
   36.7280   53.7680   17.8070 C   0  0  0  0  0  0  0  0  0  0  0  0
   35.9540   53.2380   18.5910 O   0  0  0  0  0  0  0  0  0  0  0  0
   35.7960   53.7670   15.5680 C   0  0  0  0  0  0  0  0  0  0  0  0
   36.9540   53.1940   14.9850 O   0  0  0  0  0  0  0  0  0  0  0  0
   37.7560   50.9960   17.1290 N   0  0  0  0  0  0  0  0  0  0  0  0
   37.1580   49.7770   16.6280 C   0  0  2  0  0  0  0  0  0  0  0  0
   38.1700   49.2760   15.6030 C   0  0  0  0  0  0  0  0  0  0  0  0
   38.2250   49.7460   14.4620 O   0  0  0  0  0  0  0  0  0  0  0  0
   35.8140   50.1250   15.9890 C   0  0  0  0  0  0  0  0  0  0  0  0
   34.9870   48.9400   15.4990 C   0  0  0  0  0  0  0  0  0  0  0  0
   34.2540   48.1920   16.3990 C   0  0  0  0  0  0  0  0  0  0  0  0
   34.9680   48.6180   14.1590 C   0  0  0  0  0  0  0  0  0  0  0  0
   33.5070   47.1190   15.9560 C   0  0  0  0  0  0  0  0  0  0  0  0
   34.2190   47.5440   13.7280 C   0  0  0  0  0  0  0  0  0  0  0  0
   33.4870   46.7920   14.6210 C   0  0  0  0  0  0  0  0  0  0  0  0
   39.0040   48.3330   16.0210 N   0  0  0  0  0  0  0  0  0  0  0  0
   40.0800   47.8330   15.1800 C   0  0  2  0  0  0  0  0  0  0  0  0
   39.6390   46.6690   14.3290 C   0  0  0  0  0  0  0  0  0  0  0  0
   39.1670   45.6630   14.8480 O   0  0  0  0  0  0  0  0  0  0  0  0
   41.2450   47.3770   16.0280 C   0  0  0  0  0  0  0  0  0  0  0  0
   41.9890   48.4830   16.7490 C   0  0  0  0  0  0  0  0  0  0  0  0
   41.4130   49.2750   17.4790 O   0  0  0  0  0  0  0  0  0  0  0  0
   43.3090   48.5380   16.6460 N   0  0  0  0  0  0  0  0  0  0  0  0
   39.7850   46.7330   13.0250 N   0  0  0  0  0  0  0  0  0  0  0  0
   39.3790   45.6590   12.1510 C   0  0  2  0  0  0  0  0  0  0  0  0
   40.6380   45.1880   11.4330 C   0  0  0  0  0  0  0  0  0  0  0  0
   41.4300   46.0120   10.9630 O   0  0  0  0  0  0  0  0  0  0  0  0
   38.3170   46.1710   11.1220 C   0  0  0  0  0  0  0  0  0  0  0  0
   37.8180   45.0460   10.2210 C   0  0  0  0  0  0  0  0  0  0  0  0
   37.1060   46.6880   11.8690 C   0  0  0  0  0  0  0  0  0  0  0  0
   40.8360   43.8760   11.3320 N   0  0  0  0  0  0  0  0  0  0  0  0
   41.9570   43.3100   10.6090 C   0  0  0  0  0  0  0  0  0  0  0  0
   41.4540   42.4500    9.4690 C   0  0  0  0  0  0  0  0  0  0  0  0
   40.3970   41.8240    9.5910 O   0  0  0  0  0  0  0  0  0  0  0  0
   44.4050   46.7540    7.6670 N   0  0  0  0  0  0  0  0  0  0  0  0
   43.7240   47.2060    8.8590 C   0  0  2  0  0  0  0  0  0  0  0  0
   43.1080   48.5620    8.5300 C   0  0  0  0  0  0  0  0  0  0  0  0
   43.4750   49.2080    7.5450 O   0  0  0  0  0  0  0  0  0  0  0  0
   44.7050   47.3650    9.9680 C   0  0  0  0  0  0  0  0  0  0  0  0
   42.0900   48.9730    9.2720 N   0  0  0  0  0  0  0  0  0  0  0  0
   41.3970   50.2170    8.9860 C   0  0  2  0  0  0  0  0  0  0  0  0
   42.1550   51.4190    9.5040 C   0  0  0  0  0  0  0  0  0  0  0  0
   42.8910   51.3160   10.4850 O   0  0  0  0  0  0  0  0  0  0  0  0
   39.9920   50.2040    9.5990 C   0  0  0  0  0  0  0  0  0  0  0  0
   39.9120   49.8690   11.0790 C   0  0  0  0  0  0  0  0  0  0  0  0
   40.6180   49.0020   11.5900 O   0  0  0  0  0  0  0  0  0  0  0  0
   39.0150   50.4630   11.8410 N   0  0  0  0  0  0  0  0  0  0  0  0
   41.9890   52.5780    8.8750 N   0  0  0  0  0  0  0  0  0  0  0  0
   42.6850   53.7950    9.2710 C   0  0  2  0  0  0  0  0  0  0  0  0
   41.7340   54.9810    9.2500 C   0  0  0  0  0  0  0  0  0  0  0  0
   41.0040   55.1750    8.2730 O   0  0  0  0  0  0  0  0  0  0  0  0
   43.8230   54.1060    8.3100 C   0  0  0  0  0  0  0  0  0  0  0  0
   44.9270   53.0790    8.2090 C   0  0  0  0  0  0  0  0  0  0  0  0
   46.0660   53.4900    6.8680 S   0  0  0  0  0  0  0  0  0  0  0  0
   47.2220   54.4050    7.8410 C   0  0  0  0  0  0  0  0  0  0  0  0
   41.7920   55.8140   10.2770 N   0  0  0  0  0  0  0  0  0  0  0  0
   40.9680   57.0040   10.4150 C   0  0  2  0  0  0  0  0  0  0  0  0
   41.8790   58.1990   10.6070 C   0  0  0  0  0  0  0  0  0  0  0  0
   42.8200   58.1430   11.3970 O   0  0  0  0  0  0  0  0  0  0  0  0
   40.0810   56.9350   11.6370 C   0  0  0  0  0  0  0  0  0  0  0  0
   39.0850   55.8200   11.5170 C   0  0  0  0  0  0  0  0  0  0  0  0
   38.5450   55.3120   12.8270 C   0  0  0  0  0  0  0  0  0  0  0  0
   38.8150   55.8700   13.8890 O   0  0  0  0  0  0  0  0  0  0  0  0
   37.8320   54.3210   12.7720 O   0  0  0  0  0  0  0  0  0  0  0  0
   35.3240   61.8560    6.7900 N   0  0  0  0  0  0  0  0  0  0  0  0
   34.8670   60.4850    6.8260 C   0  0  2  0  0  0  0  0  0  0  0  0
   35.1440   59.8500    5.4500 C   0  0  0  0  0  0  0  0  0  0  0  0
   35.4790   58.6650    5.3540 O   0  0  0  0  0  0  0  0  0  0  0  0
   33.4220   60.6400    7.2000 C   0  0  0  0  0  0  0  0  0  0  0  0
   32.7610   59.6510    8.0740 C   0  0  0  0  0  0  0  0  0  0  0  0
   33.5680   59.2380    9.6050 S   0  0  0  0  0  0  0  0  0  0  0  0
   32.3290   59.2400   10.8520 C   0  0  0  0  0  0  0  0  0  0  0  0
   38.5970   57.8320    5.1640 N   0  0  0  0  0  0  0  0  0  0  0  0
   38.7570   56.6110    5.9320 C   0  0  2  0  0  0  0  0  0  0  0  0
   39.1430   55.4440    5.0350 C   0  0  0  0  0  0  0  0  0  0  0  0
   38.7290   55.3630    3.8640 O   0  0  0  0  0  0  0  0  0  0  0  0
   37.4420   56.2910    6.6640 C   0  0  2  0  0  0  0  0  0  0  0  0
   37.1200   57.4440    7.4270 O   0  0  0  0  0  0  0  0  0  0  0  0
   37.5490   55.1090    7.6340 C   0  0  0  0  0  0  0  0  0  0  0  0
   39.9740   54.5530    5.5730 N   0  0  0  0  0  0  0  0  0  0  0  0
   40.4010   53.3820    4.8270 C   0  0  2  0  0  0  0  0  0  0  0  0
   39.8230   52.2300    5.6170 C   0  0  0  0  0  0  0  0  0  0  0  0
   39.9330   52.1690    6.8430 O   0  0  0  0  0  0  0  0  0  0  0  0
   41.9380   53.2250    4.7800 C   0  0  0  0  0  0  0  0  0  0  0  0
   42.2770   51.9680    4.0100 C   0  0  0  0  0  0  0  0  0  0  0  0
   42.5860   54.4060    4.0920 C   0  0  0  0  0  0  0  0  0  0  0  0
   39.1490   51.3030    4.9490 N   0  0  0  0  0  0  0  0  0  0  0  0
   38.6280   50.1270    5.6300 C   0  0  2  0  0  0  0  0  0  0  0  0
   39.6840   49.0150    5.5960 C   0  0  0  0  0  0  0  0  0  0  0  0
   40.4350   48.9130    4.6120 O   0  0  0  0  0  0  0  0  0  0  0  0
   37.3510   49.6790    4.9220 C   0  0  0  0  0  0  0  0  0  0  0  0
   36.1440   50.5590    5.2410 C   0  0  0  0  0  0  0  0  0  0  0  0
   34.9640   50.2030    5.7130 N   0  0  0  0  0  0  0  0  0  0  0  0
   36.1030   51.9200    5.1370 C   0  0  0  0  0  0  0  0  0  0  0  0
   34.2270   51.2600    5.9200 C   0  0  0  0  0  0  0  0  0  0  0  0
   34.9320   52.2860    5.5650 N   0  0  0  0  0  0  0  0  0  0  0  0
   39.7170   48.1210    6.5860 N   0  0  0  0  0  0  0  0  0  0  0  0
   40.6600   47.0020    6.6040 C   0  0  2  0  0  0  0  0  0  0  0  0
   40.7080   46.1910    5.3260 C   0  0  0  0  0  0  0  0  0  0  0  0
   41.7720   45.9080    4.7820 O   0  0  0  0  0  0  0  0  0  0  0  0
   40.3230   46.0760    7.7330 C   0  0  0  0  0  0  0  0  0  0  0  0
   39.5480   45.9950    4.7160 N   0  0  0  0  0  0  0  0  0  0  0  0
   39.4150   45.2300    3.4910 C   0  0  2  0  0  0  0  0  0  0  0  0
   40.0520   45.9670    2.3250 C   0  0  0  0  0  0  0  0  0  0  0  0
   40.7080   45.3450    1.4830 O   0  0  0  0  0  0  0  0  0  0  0  0
   37.9430   44.9740    3.1630 C   0  0  0  0  0  0  0  0  0  0  0  0
   37.1400   44.1640    4.1930 C   0  0  0  0  0  0  0  0  0  0  0  0
   36.5830   44.8760    5.4270 C   0  0  0  0  0  0  0  0  0  0  0  0
   37.0870   45.9190    5.8400 O   0  0  0  0  0  0  0  0  0  0  0  0
   35.6310   44.3690    6.0140 O   0  0  0  0  0  0  0  0  0  0  0  0
   39.8990   47.3020    2.2470 N   0  0  0  0  0  0  0  0  0  0  0  0
   40.5230   48.0640    1.1690 C   0  0  2  0  0  0  0  0  0  0  0  0
   42.0360   48.0860    1.3800 C   0  0  0  0  0  0  0  0  0  0  0  0
   42.7890   47.9830    0.4250 O   0  0  0  0  0  0  0  0  0  0  0  0
   40.0550   49.4930    1.1480 C   0  0  0  0  0  0  0  0  0  0  0  0
   38.6250   49.6990    0.6990 C   0  0  0  0  0  0  0  0  0  0  0  0
   38.2250   51.1410    0.9460 C   0  0  0  0  0  0  0  0  0  0  0  0
   38.0000   51.5320    2.1000 O   0  0  0  0  0  0  0  0  0  0  0  0
   38.0780   51.9440   -0.0940 N   0  0  0  0  0  0  0  0  0  0  0  0
   35.4100   40.9320   11.0820 N   0  0  0  0  0  0  0  0  0  0  0  0
   34.1000   41.5190   11.2770 C   0  0  2  0  0  0  0  0  0  0  0  0
   33.4980   41.5180    9.8850 C   0  0  0  0  0  0  0  0  0  0  0  0
   34.2370   41.5570    8.8920 O   0  0  0  0  0  0  0  0  0  0  0  0
   34.2350   42.9380   11.8140 C   0  0  0  0  0  0  0  0  0  0  0  0
   33.1880   43.2280   12.8690 C   0  0  0  0  0  0  0  0  0  0  0  0
   31.9400   43.7220   12.5080 C   0  0  0  0  0  0  0  0  0  0  0  0
   33.4750   42.9700   14.1930 C   0  0  0  0  0  0  0  0  0  0  0  0
   30.9750   43.9720   13.4690 C   0  0  0  0  0  0  0  0  0  0  0  0
   32.5110   43.2170   15.1570 C   0  0  0  0  0  0  0  0  0  0  0  0
   31.2610   43.7120   14.7990 C   0  0  0  0  0  0  0  0  0  0  0  0
   30.3110   43.9530   15.7880 O   0  0  0  0  0  0  0  0  0  0  0  0
   32.0400   42.5640    6.3500 N   0  0  0  0  0  0  0  0  0  0  0  0
   32.3220   43.7300    5.5470 C   0  0  2  0  0  0  0  0  0  0  0  0
   31.0750   44.5590    5.2860 C   0  0  0  0  0  0  0  0  0  0  0  0
   29.9630   44.0720    5.1110 O   0  0  0  0  0  0  0  0  0  0  0  0
   32.9950   43.1530    4.3080 C   0  0  0  0  0  0  0  0  0  0  0  0
   32.3960   41.7720    4.1810 C   0  0  0  0  0  0  0  0  0  0  0  0
   32.2400   41.3230    5.6230 C   0  0  0  0  0  0  0  0  0  0  0  0
   31.3090   45.8600    5.2650 N   0  0  0  0  0  0  0  0  0  0  0  0
   30.2660   46.8250    5.0520 C   0  0  2  0  0  0  0  0  0  0  0  0
   29.9400   46.8190    3.5640 C   0  0  0  0  0  0  0  0  0  0  0  0
   30.7290   46.3360    2.7270 O   0  0  0  0  0  0  0  0  0  0  0  0
   30.7720   48.2010    5.5280 C   0  0  0  0  0  0  0  0  0  0  0  0
   31.8330   49.0490    4.3420 S   0  0  0  0  0  0  0  0  0  0  0  0
   30.1140   49.2030    1.4550 N   0  0  0  0  0  0  0  0  0  0  0  0
   31.1710   49.9610    0.7640 C   0  0  2  0  0  0  0  0  0  0  0  0
   32.2870   48.9970    0.3220 C   0  0  0  0  0  0  0  0  0  0  0  0
   32.7660   49.0620   -0.8090 O   0  0  0  0  0  0  0  0  0  0  0  0
   31.6930   51.0430    1.7450 C   0  0  0  0  0  0  0  0  0  0  0  0
   33.0340   51.7130    1.4280 C   0  0  0  0  0  0  0  0  0  0  0  0
   34.2490   51.4550    1.9380 N   0  0  0  0  0  0  0  0  0  0  0  0
   33.1800   52.7530    0.5550 C   0  0  0  0  0  0  0  0  0  0  0  0
   35.0990   52.2940    1.4210 C   0  0  0  0  0  0  0  0  0  0  0  0
   34.4430   53.0640    0.5960 N   0  0  0  0  0  0  0  0  0  0  0  0
   32.6760   48.0660    1.2060 N   0  0  0  0  0  0  0  0  0  0  0  0
   33.7330   47.0860    0.9230 C   0  0  2  0  0  0  0  0  0  0  0  0
   33.2740   46.0100   -0.0320 C   0  0  0  0  0  0  0  0  0  0  0  0
   34.0180   45.6780   -0.9540 O   0  0  0  0  0  0  0  0  0  0  0  0
   34.1990   46.4430    2.2020 C   0  0  0  0  0  0  0  0  0  0  0  0
   35.0680   47.7130    3.1760 S   0  0  0  0  0  0  0  0  0  0  0  0
   26.5630   45.2400    8.5090 N   0  0  0  0  0  0  0  0  0  0  0  0
   27.2740   46.0600    9.4700 C   0  0  2  0  0  0  0  0  0  0  0  0
   26.3960   47.3010    9.6500 C   0  0  0  0  0  0  0  0  0  0  0  0
   25.8440   47.8040    8.6700 O   0  0  0  0  0  0  0  0  0  0  0  0
   28.6370   46.4290    8.8750 C   0  0  0  0  0  0  0  0  0  0  0  0
   29.5050   47.2710    9.7910 C   0  0  0  0  0  0  0  0  0  0  0  0
   30.2660   46.6480   10.7620 C   0  0  0  0  0  0  0  0  0  0  0  0
   29.5100   48.6490    9.6770 C   0  0  0  0  0  0  0  0  0  0  0  0
   31.0330   47.4050   11.6270 C   0  0  0  0  0  0  0  0  0  0  0  0
   30.2800   49.3950   10.5460 C   0  0  0  0  0  0  0  0  0  0  0  0
   31.0400   48.7780   11.5210 C   0  0  0  0  0  0  0  0  0  0  0  0
   28.5070   49.6030   16.5280 N   0  0  0  0  0  0  0  0  0  0  0  0
   29.2940   50.5900   17.2320 C   0  0  2  0  0  0  0  0  0  0  0  0
   28.5380   51.1160   18.4460 C   0  0  0  0  0  0  0  0  0  0  0  0
   28.8670   52.1590   19.0030 O   0  0  0  0  0  0  0  0  0  0  0  0
   29.6380   51.7050   16.2490 C   0  0  0  0  0  0  0  0  0  0  0  0
   30.4010   51.3250   14.9770 C   0  0  0  0  0  0  0  0  0  0  0  0
   31.0010   52.5620   14.3270 C   0  0  0  0  0  0  0  0  0  0  0  0
   31.5800   50.4510   15.3180 C   0  0  0  0  0  0  0  0  0  0  0  0
   27.6050   57.8990    8.7520 N   0  0  0  0  0  0  0  0  0  0  0  0
   27.2810   56.5080    8.4990 C   0  0  2  0  0  0  0  0  0  0  0  0
   28.1880   55.6500    9.3730 C   0  0  0  0  0  0  0  0  0  0  0  0
   29.3130   56.0440    9.6750 O   0  0  0  0  0  0  0  0  0  0  0  0
   27.5090   56.2020    7.0380 C   0  0  0  0  0  0  0  0  0  0  0  0
   26.9710   54.8310    6.7140 C   0  0  0  0  0  0  0  0  0  0  0  0
   27.6960   53.8440    6.8060 O   0  0  0  0  0  0  0  0  0  0  0  0
   25.7040   54.7150    6.3640 N   0  0  0  0  0  0  0  0  0  0  0  0
   27.7430   54.4730    9.8050 N   0  0  0  0  0  0  0  0  0  0  0  0
   28.5010   53.6130   10.6980 C   0  0  2  0  0  0  0  0  0  0  0  0
   29.7520   53.0870   10.0320 C   0  0  0  0  0  0  0  0  0  0  0  0
   30.7690   52.9010   10.6750 O   0  0  0  0  0  0  0  0  0  0  0  0
   27.6640   52.4270   11.1180 C   0  0  0  0  0  0  0  0  0  0  0  0
   29.6810   52.8790    8.7240 N   0  0  0  0  0  0  0  0  0  0  0  0
   30.8120   52.4490    7.9310 C   0  0  2  0  0  0  0  0  0  0  0  0
   31.6590   53.6350    7.4940 C   0  0  0  0  0  0  0  0  0  0  0  0
   32.5100   53.4800    6.6020 O   0  0  0  0  0  0  0  0  0  0  0  0
   30.3310   51.7380    6.6900 C   0  0  0  0  0  0  0  0  0  0  0  0
   31.4440   54.8110    8.0930 N   0  0  0  0  0  0  0  0  0  0  0  0
   32.1480   56.0570    7.8420 C   0  0  2  0  0  0  0  0  0  0  0  0
   32.1260   56.5970    6.4190 C   0  0  0  0  0  0  0  0  0  0  0  0
   31.4430   57.5850    6.1490 O   0  0  0  0  0  0  0  0  0  0  0  0
   33.5830   55.8860    8.3380 C   0  0  0  0  0  0  0  0  0  0  0  0
   33.7450   55.8920    9.8540 C   0  0  0  0  0  0  0  0  0  0  0  0
   32.7260   55.4980   10.7010 C   0  0  0  0  0  0  0  0  0  0  0  0
   34.9420   56.3380   10.3850 C   0  0  0  0  0  0  0  0  0  0  0  0
   32.8950   55.5580   12.0720 C   0  0  0  0  0  0  0  0  0  0  0  0
   35.1040   56.3930   11.7590 C   0  0  0  0  0  0  0  0  0  0  0  0
   34.0840   56.0050   12.6090 C   0  0  0  0  0  0  0  0  0  0  0  0
   32.7560   56.0030    5.4260 N   0  0  0  0  0  0  0  0  0  0  0  0
   32.7790   56.5690    4.0880 C   0  0  2  0  0  0  0  0  0  0  0  0
   31.4390   56.8910    3.4260 C   0  0  0  0  0  0  0  0  0  0  0  0
   31.4070   57.9120    2.7170 O   0  0  0  0  0  0  0  0  0  0  0  0
   33.5500   55.6510    3.1220 C   0  0  0  0  0  0  0  0  0  0  0  0
   34.9830   55.3810    3.5290 C   0  0  0  0  0  0  0  0  0  0  0  0
   35.1760   54.7540    4.5660 O   0  0  0  0  0  0  0  0  0  0  0  0
   36.0100   55.7510    2.7790 N   0  0  0  0  0  0  0  0  0  0  0  0
   39.2240   57.7810   15.9870 N   0  0  0  0  0  0  0  0  0  0  0  0
   37.8130   58.0660   16.2110 C   0  0  2  0  0  0  0  0  0  0  0  0
   37.0270   56.9250   16.8280 C   0  0  0  0  0  0  0  0  0  0  0  0
   36.4110   57.0920   17.8660 O   0  0  0  0  0  0  0  0  0  0  0  0
   37.1220   58.4290   14.9140 C   0  0  0  0  0  0  0  0  0  0  0  0
   37.4750   59.7420   14.2900 C   0  0  0  0  0  0  0  0  0  0  0  0
   36.9540   59.7930   12.8710 C   0  0  0  0  0  0  0  0  0  0  0  0
   36.8850   60.8450   15.1260 C   0  0  0  0  0  0  0  0  0  0  0  0
   41.5560   59.3250    9.9890 N   0  0  0  0  0  0  0  0  0  0  0  0
   42.4260   60.4700   10.0290 C   0  0  2  0  0  0  0  0  0  0  0  0
   41.7450   61.6720   10.6420 C   0  0  0  0  0  0  0  0  0  0  0  0
   40.8520   62.2770   10.0500 O   0  0  0  0  0  0  0  0  0  0  0  0
   42.8840   60.7820    8.6080 C   0  0  0  0  0  0  0  0  0  0  0  0
   43.5240   59.5860    7.9200 C   0  0  0  0  0  0  0  0  0  0  0  0
   44.7410   59.0890    8.3540 C   0  0  0  0  0  0  0  0  0  0  0  0
   42.8620   58.9850    6.8650 C   0  0  0  0  0  0  0  0  0  0  0  0
   45.2800   57.9900    7.7190 C   0  0  0  0  0  0  0  0  0  0  0  0
   43.4150   57.8830    6.2380 C   0  0  0  0  0  0  0  0  0  0  0  0
   44.6250   57.3880    6.6660 C   0  0  0  0  0  0  0  0  0  0  0  0
   42.4940   48.1990    2.6230 N   0  0  0  0  0  0  0  0  0  0  0  0
   43.8900   48.1630    2.9900 C   0  0  2  0  0  0  0  0  0  0  0  0
   44.5340   46.8460    2.5270 C   0  0  0  0  0  0  0  0  0  0  0  0
   45.5440   46.8550    1.8100 O   0  0  0  0  0  0  0  0  0  0  0  0
   43.8930   48.3490    4.4870 C   0  0  0  0  0  0  0  0  0  0  0  0
   45.1240   48.1070    5.1460 O   0  0  0  0  0  0  0  0  0  0  0  0
   41.7760   56.5050   15.7440 N   0  0  0  0  0  0  0  0  0  0  0  0
   41.5820   57.5630   16.7210 C   0  0  2  0  0  0  0  0  0  0  0  0
   40.1220   57.9430   16.9700 C   0  0  0  0  0  0  0  0  0  0  0  0
   39.7930   58.4040   18.0570 O   0  0  0  0  0  0  0  0  0  0  0  0
   42.4180   58.6790   16.1700 C   0  0  0  0  0  0  0  0  0  0  0  0
   42.3580   58.4720   14.6800 C   0  0  0  0  0  0  0  0  0  0  0  0
   42.5660   56.9830   14.6140 C   0  0  0  0  0  0  0  0  0  0  0  0
   38.0510   53.5610   17.8390 N   0  0  0  0  0  0  0  0  0  0  0  0
   38.6950   52.5720   18.6970 C   0  0  2  0  0  0  0  0  0  0  0  0
   38.0970   51.1890   18.4030 C   0  0  0  0  0  0  0  0  0  0  0  0
   37.9550   50.3090   19.2540 O   0  0  0  0  0  0  0  0  0  0  0  0
   38.5010   52.9620   20.1710 C   0  0  0  0  0  0  0  0  0  0  0  0
   39.4720   52.2950   21.1500 C   0  0  0  0  0  0  0  0  0  0  0  0
   39.9570   52.9780   22.0550 O   0  0  0  0  0  0  0  0  0  0  0  0
   39.8560   51.0170   21.1330 N   0  0  0  0  0  0  0  0  0  0  0  0
   29.2190   59.3750   15.5680 N   0  0  0  0  0  0  0  0  0  0  0  0
   30.5390   58.7650   15.5780 C   0  0  2  0  0  0  0  0  0  0  0  0
   31.6460   59.7590   15.8310 C   0  0  0  0  0  0  0  0  0  0  0  0
   32.5220   59.4550   16.6270 O   0  0  0  0  0  0  0  0  0  0  0  0
   30.8240   58.0620   14.2550 C   0  0  0  0  0  0  0  0  0  0  0  0
   29.6740   57.1380   13.9290 C   0  0  0  0  0  0  0  0  0  0  0  0
   29.4850   55.9790   14.6620 C   0  0  0  0  0  0  0  0  0  0  0  0
   28.7740   57.5320   12.9600 C   0  0  0  0  0  0  0  0  0  0  0  0
   28.3670   55.2090   14.4170 C   0  0  0  0  0  0  0  0  0  0  0  0
   27.6600   56.7700   12.7170 C   0  0  0  0  0  0  0  0  0  0  0  0
   27.4720   55.6160   13.4470 C   0  0  0  0  0  0  0  0  0  0  0  0
   26.3520   54.8570   13.2010 O   0  0  0  0  0  0  0  0  0  0  0  0
   44.6350   52.0040   12.7490 N   0  0  0  0  0  0  0  0  0  0  0  0
   44.8020   53.3660   13.2160 C   0  0  2  0  0  0  0  0  0  0  0  0
   43.4040   53.9190   13.4140 C   0  0  0  0  0  0  0  0  0  0  0  0
   42.7590   54.4320   12.4950 O   0  0  0  0  0  0  0  0  0  0  0  0
   45.5470   54.1670   12.1710 C   0  0  0  0  0  0  0  0  0  0  0  0
   46.9590   53.6880   11.9970 C   0  0  0  0  0  0  0  0  0  0  0  0
   47.7420   53.9780   13.2530 C   0  0  0  0  0  0  0  0  0  0  0  0
   49.0530   54.2190   12.7220 N   0  0  0  0  0  0  0  0  0  0  0  0
   49.7270   55.3430   12.9010 C   0  0  0  0  0  0  0  0  0  0  0  0
   49.3350   56.3020   13.7420 N   0  0  0  0  0  0  0  0  0  0  0  0
   50.8730   55.4290   12.2330 N   0  0  0  0  0  0  0  0  0  0  0  0
   26.5710   47.8280   15.7020 N   0  0  0  0  0  0  0  0  0  0  0  0
   27.9190   47.3250   15.8670 C   0  0  2  0  0  0  0  0  0  0  0  0
   28.8110   48.3060   16.6040 C   0  0  0  0  0  0  0  0  0  0  0  0
   29.7770   47.9050   17.2480 O   0  0  0  0  0  0  0  0  0  0  0  0
   28.5170   47.0190   14.5100 C   0  0  0  0  0  0  0  0  0  0  0  0
   27.7290   45.9080   13.8470 C   0  0  0  0  0  0  0  0  0  0  0  0
   27.8130   44.7730   14.2970 O   0  0  0  0  0  0  0  0  0  0  0  0
   27.0060   46.1640   12.8960 O   0  0  0  0  0  0  0  0  0  0  0  0
   37.9140   40.0400   10.4310 N   0  0  0  0  0  0  0  0  0  0  0  0
   37.4100   39.6850   11.7390 C   0  0  2  0  0  0  0  0  0  0  0  0
   36.0540   40.2790   12.0430 C   0  0  0  0  0  0  0  0  0  0  0  0
   35.5560   40.1360   13.1550 O   0  0  0  0  0  0  0  0  0  0  0  0
   38.3890   40.1060   12.8340 C   0  0  0  0  0  0  0  0  0  0  0  0
   38.6570   41.5910   12.9290 C   0  0  0  0  0  0  0  0  0  0  0  0
   38.5130   42.3170   11.9500 O   0  0  0  0  0  0  0  0  0  0  0  0
   39.1110   42.0990   14.0690 N   0  0  0  0  0  0  0  0  0  0  0  0
   38.3320   38.2940    7.3250 N   0  0  0  0  0  0  0  0  0  0  0  0
   38.1800   39.5690    8.0340 C   0  0  2  0  0  0  0  0  0  0  0  0
   37.6450   39.2300    9.4120 C   0  0  0  0  0  0  0  0  0  0  0  0
   36.9890   38.1940    9.5830 O   0  0  0  0  0  0  0  0  0  0  0  0
   37.1590   40.5360    7.3340 C   0  0  0  0  0  0  0  0  0  0  0  0
   37.4280   41.9420    7.8590 C   0  0  0  0  0  0  0  0  0  0  0  0
   37.2630   40.5130    5.8120 C   0  0  0  0  0  0  0  0  0  0  0  0
   32.1760   41.4100    9.7620 N   0  0  0  0  0  0  0  0  0  0  0  0
   31.5460   41.3790    8.4510 C   0  0  2  0  0  0  0  0  0  0  0  0
   31.7640   42.6700    7.6490 C   0  0  0  0  0  0  0  0  0  0  0  0
   31.7540   43.7940    8.1880 O   0  0  0  0  0  0  0  0  0  0  0  0
   30.0450   41.0960    8.6430 C   0  0  2  0  0  0  0  0  0  0  0  0
   29.5850   40.7210    7.3420 O   0  0  0  0  0  0  0  0  0  0  0  0
   29.2750   42.2490    9.2800 C   0  0  0  0  0  0  0  0  0  0  0  0
   26.2850   47.9230   10.8100 N   0  0  0  0  0  0  0  0  0  0  0  0
   25.4340   49.0820   10.9680 C   0  0  0  0  0  0  0  0  0  0  0  0
   25.6530   49.6820   12.3370 C   0  0  0  0  0  0  0  0  0  0  0  0
   26.5150   49.1990   13.0850 O   0  0  0  0  0  0  0  0  0  0  0  0
   42.1620   42.4280    8.3490 N   0  0  0  0  0  0  0  0  0  0  0  0
   41.8020   41.6220    7.1950 C   0  0  2  0  0  0  0  0  0  0  0  0
   43.0790   40.9890    6.6620 C   0  0  0  0  0  0  0  0  0  0  0  0
   44.1530   41.5710    6.8360 O   0  0  0  0  0  0  0  0  0  0  0  0
   41.2270   42.4610    6.0740 C   0  0  0  0  0  0  0  0  0  0  0  0
   45.9570   43.8520    6.4090 N   0  0  0  0  0  0  0  0  0  0  0  0
   45.2910   45.0950    6.1340 C   0  0  0  0  0  0  0  0  0  0  0  0
   44.5450   45.4670    7.3900 C   0  0  0  0  0  0  0  0  0  0  0  0
   44.1140   44.5800    8.1350 O   0  0  0  0  0  0  0  0  0  0  0  0
   44.6990   43.2890   12.9050 N   0  0  0  0  0  0  0  0  0  0  0  0
   43.9270   44.3110   13.5910 C   0  0  2  0  0  0  0  0  0  0  0  0
   44.8120   45.1970   14.4570 C   0  0  0  0  0  0  0  0  0  0  0  0
   44.4740   46.3530   14.7430 O   0  0  0  0  0  0  0  0  0  0  0  0
   42.8840   43.6780   14.4870 C   0  0  0  0  0  0  0  0  0  0  0  0
   28.8320   47.4350    3.1700 N   0  0  0  0  0  0  0  0  0  0  0  0
   28.4380   47.4740    1.7670 C   0  0  0  0  0  0  0  0  0  0  0  0
   29.4390   48.1990    0.8920 C   0  0  0  0  0  0  0  0  0  0  0  0
   29.5840   47.9180   -0.2990 O   0  0  0  0  0  0  0  0  0  0  0  0
   32.0380   45.5150    0.1140 N   0  0  0  0  0  0  0  0  0  0  0  0
   31.4970   44.5620   -0.8540 C   0  0  2  0  0  0  0  0  0  0  0  0
   31.5090   45.1790   -2.2420 C   0  0  0  0  0  0  0  0  0  0  0  0
   31.8390   44.5410   -3.2500 O   0  0  0  0  0  0  0  0  0  0  0  0
   30.0660   44.1690   -0.4640 C   0  0  0  0  0  0  0  0  0  0  0  0
   30.0660   43.5920    0.9300 C   0  0  0  0  0  0  0  0  0  0  0  0
   28.6710   43.2180    1.3970 C   0  0  0  0  0  0  0  0  0  0  0  0
   28.7010   42.9930    2.8390 N   0  0  0  0  0  0  0  0  0  0  0  0
   27.6760   42.4670    3.5190 C   0  0  0  0  0  0  0  0  0  0  0  0
   26.5760   42.0360    2.8870 N   0  0  0  0  0  0  0  0  0  0  0  0
   27.7660   42.3370    4.8440 N   0  0  0  0  0  0  0  0  0  0  0  0
   24.5690   50.3180    2.3430 N   0  0  0  0  0  0  0  0  0  0  0  0
   25.1440   50.6880    3.6220 C   0  0  2  0  0  0  0  0  0  0  0  0
   24.5500   52.0090    4.1160 C   0  0  0  0  0  0  0  0  0  0  0  0
   24.2750   52.1610    5.3190 O   0  0  0  0  0  0  0  0  0  0  0  0
   26.6530   50.7790    3.4540 C   0  0  0  0  0  0  0  0  0  0  0  0
   27.3280   50.9150    4.8060 C   0  0  0  0  0  0  0  0  0  0  0  0
   27.0990   49.7040    5.6870 C   0  0  0  0  0  0  0  0  0  0  0  0
   27.3340   48.5830    5.2550 O   0  0  0  0  0  0  0  0  0  0  0  0
   26.6720   49.8510    6.9170 N   0  0  0  0  0  0  0  0  0  0  0  0
   24.6840   42.2390    7.7420 N   0  0  0  0  0  0  0  0  0  0  0  0
   24.9290   43.6570    7.6930 C   0  0  2  0  0  0  0  0  0  0  0  0
   25.7040   44.2730    8.8370 C   0  0  0  0  0  0  0  0  0  0  0  0
   25.5350   43.8860    9.9940 O   0  0  0  0  0  0  0  0  0  0  0  0
   23.5960   44.3640    7.5910 C   0  0  0  0  0  0  0  0  0  0  0  0
   35.2510   45.2860   -3.4020 N   0  0  0  0  0  0  0  0  0  0  0  0
   35.6300   43.9550   -3.8290 C   0  0  2  0  0  0  0  0  0  0  0  0
   35.0450   43.5890   -5.1670 C   0  0  0  0  0  0  0  0  0  0  0  0
   35.7100   42.9250   -5.9610 O   0  0  0  0  0  0  0  0  0  0  0  0
   35.1850   42.9480   -2.8150 C   0  0  0  0  0  0  0  0  0  0  0  0
   35.9660   43.0790   -1.5300 C   0  0  0  0  0  0  0  0  0  0  0  0
   35.3110   41.8440   -0.4110 S   0  0  0  0  0  0  0  0  0  0  0  0
   35.3400   42.6140    1.1680 C   0  0  0  0  0  0  0  0  0  0  0  0
   24.9000   50.7060   12.7450 N   0  0  0  0  0  0  0  0  0  0  0  0
   25.1320   51.4340   13.9880 C   0  0  2  0  0  0  0  0  0  0  0  0
   25.1700   50.5980   15.2560 C   0  0  0  0  0  0  0  0  0  0  0  0
   25.9200   50.8870   16.1920 O   0  0  0  0  0  0  0  0  0  0  0  0
   24.0500   52.4970   14.0150 C   0  0  0  0  0  0  0  0  0  0  0  0
   23.1600   52.2370   12.8300 C   0  0  0  0  0  0  0  0  0  0  0  0
   23.9870   51.4270   11.8670 C   0  0  0  0  0  0  0  0  0  0  0  0
  2  1  1  0
  3  2  1  0
  4  3  2  0
  2  5  1  1
  7  6  1  1
  8  7  1  0
  9  8  2  0
 10  7  1  0
 11 10  1  0
 10 12  1  6
 14 13  1  0
 15 14  1  0
 16 15  2  0
 14 17  1  6
 18 17  1  0
 20 19  1  0
 21 20  1  0
 22 21  2  0
 20 23  1  6
 24 23  1  0
 25 24  2  0
 26 24  1  0
 27 25  1  0
 28 26  2  0
 29 28  1  0
 29 27  2  0
 30 21  1  0
 31 30  1  0
 32 31  1  0
 33 32  2  0
 31 34  1  1
 35 34  1  0
 36 35  2  0
 37 35  1  0
 38 32  1  0
 39 38  1  1
 40 39  1  0
 41 40  2  0
 42 39  1  0
 43 42  1  0
 44 42  1  0
 45 40  1  0
 46 45  1  0
 47 46  1  0
 48 47  2  0
 50 49  1  0
 51 50  1  0
 52 51  2  0
 50 53  1  1
 54 51  1  0
 55 54  1  0
 56 55  1  0
 57 56  2  0
 55 58  1  1
 59 58  1  0
 60 59  2  0
 61 59  1  0
 62 56  1  0
 63 62  1  0
 64 63  1  0
 65 64  2  0
 63 66  1  6
 67 66  1  0
 68 67  1  0
 69 68  1  0
 70 64  1  0
 71 70  1  0
 72 71  1  0
 73 72  2  0
 71 74  1  1
 75 74  1  0
 76 75  1  0
 77 76  2  0
 78 76  1  0
 80 79  1  6
 81 80  1  0
 82 81  2  0
 83 80  1  0
 84 83  1  0
 85 84  1  0
 86 85  1  0
 88 87  1  6
 89 88  1  0
 90 89  2  0
 91 88  1  0
 92 91  1  0
 91 93  1  1
 94 89  1  0
 95 94  1  1
 96 95  1  0
 97 96  2  0
 98 95  1  0
 99 98  1  0
100 98  1  0
101 96  1  0
102101  1  0
103102  1  0
104103  2  0
102105  1  6
106105  1  0
107106  1  0
108106  2  0
109107  2  0
110108  1  0
110109  1  0
111103  1  0
112111  1  0
113112  1  0
114113  2  0
112115  1  1
116113  1  0
117116  1  0
118117  1  0
119118  2  0
117120  1  6
121120  1  0
122121  1  0
123122  2  0
124122  1  0
125118  1  0
126125  1  0
127126  1  0
128127  2  0
126129  1  1
130129  1  0
131130  1  0
132131  2  0
133131  1  0
135134  1  0
136135  1  0
137136  2  0
135138  1  6
139138  1  0
140139  2  0
141139  1  0
142140  1  0
143141  2  0
144143  1  0
144142  2  0
145144  1  0
147146  1  0
147148  1  6
149148  2  0
150147  1  0
151150  1  0
152151  1  0
152146  1  0
153148  1  0
154153  1  0
155154  1  0
156155  2  0
154157  1  6
158157  1  0
160159  1  0
161160  1  0
162161  2  0
160163  1  1
164163  1  0
165164  1  0
166164  2  0
167165  2  0
168167  1  0
168166  1  0
169161  1  0
170169  1  0
171170  1  0
172171  2  0
170173  1  1
174173  1  0
176175  1  0
177176  1  0
178177  2  0
176179  1  6
180179  1  0
181180  2  0
182180  1  0
183181  1  0
184182  2  0
185183  2  0
185184  1  0
187186  1  0
188187  1  0
189188  2  0
187190  1  6
191190  1  0
192191  1  0
193191  1  0
195194  1  6
196195  1  0
197196  2  0
198195  1  0
199198  1  0
200199  2  0
201199  1  0
202196  1  0
203202  1  0
204203  1  0
205204  2  0
203206  1  6
207204  1  0
208207  1  0
209208  1  0
210209  2  0
208211  1  6
212209  1  0
213212  1  0
214213  1  0
215214  2  0
213216  1  6
217216  1  0
218217  2  0
219217  1  0
220218  1  0
221219  2  0
222221  1  0
222220  2  0
223214  1  0
224223  1  0
225224  1  0
226225  2  0
224227  1  6
228227  1  0
229228  2  0
230228  1  0
232231  1  0
233232  1  0
233 13  1  0
234233  2  0
232235  1  6
236235  1  0
237236  1  0
238236  1  0
239 72  1  0
240239  1  0
241240  1  0
242241  2  0
240243  1  6
244243  1  0
245244  2  0
246244  1  0
247245  1  0
248246  2  0
249248  1  0
249247  2  0
250127  1  0
251250  1  0
252251  1  0
253252  2  0
251254  1  1
255254  1  0
256  8  1  0
257256  1  0
258231  1  0
257258  1  6
259258  2  0
260257  1  0
261260  1  0
262261  1  0
262256  1  0
263 15  1  0
264263  1  0
265 19  1  0
265264  1  0
266265  2  0
264267  1  1
268267  1  0
269268  2  0
270268  1  0
272271  1  6
273272  1  0
274273  2  0
275272  1  0
276275  1  0
277276  2  0
278276  1  0
279277  1  0
280278  2  0
281280  1  0
281279  2  0
282281  1  0
283  3  1  0
284283  1  0
285  6  1  0
285284  1  0
286285  2  0
284287  1  6
288287  1  0
289288  1  0
290289  1  0
291290  1  0
292291  1  0
293291  2  0
295294  1  6
296295  1  0
296186  1  0
297296  2  0
298295  1  0
299298  1  0
300299  2  0
301299  1  0
303302  1  0
304303  1  0
304134  1  0
305304  2  0
303306  1  1
307306  1  0
308307  2  0
309307  1  0
311310  1  6
312302  1  0
312311  1  0
313312  2  0
314311  1  0
315314  1  0
316314  1  0
317136  1  0
318317  1  1
319318  1  0
319146  1  0
320319  2  0
321318  1  0
322321  1  0
321323  1  6
324177  1  0
325324  1  0
326325  1  0
327326  2  0
328 47  1  0
329328  1  0
330329  1  0
331330  2  0
329332  1  6
334333  1  0
335334  1  0
335 49  1  0
336335  2  0
338337  1  0
339338  1  0
340339  2  0
338341  1  1
342155  1  0
343342  1  0
344343  1  0
344159  1  0
345344  2  0
346171  1  0
347346  1  0
348347  1  0
349348  2  0
347350  1  1
351350  1  0
352351  1  0
353352  1  0
354353  1  0
355354  1  0
356354  2  0
358357  1  6
359358  1  0
360359  2  0
361358  1  0
362361  1  0
363362  1  0
364363  2  0
365363  1  0
367366  1  0
368367  1  0
368175  1  0
369368  2  0
367370  1  1
372371  1  1
373372  1  0
374373  2  0
375372  1  0
376375  1  0
377376  1  0
378377  1  0
379326  1  0
380379  1  0
380381  1  1
382381  2  0
383380  1  0
384383  1  0
385384  1  0
385379  1  0
M  END
$$$$
